### Utterly mysterious parameters for the KPP parameterzation scheme
#
 &KPP_PARM01
 &
